/*--------------------------------*- C++ -*----------------------------------*\
  =========                 |
  \\      /  F ield         | OpenFOAM: The Open Source CFD Toolbox
   \\    /   O peration     | Website:  https://openfoam.org
    \\  /    A nd           | Version:  dev
     \\/     M anipulation  |
\*---------------------------------------------------------------------------*/
FoamFile
{
    version     2.0;
    format      ascii;
    class       volScalarField;
    object      nut;
}
// * * * * * * * * * * * * * * * * * * * * * * * * * * * * * * * * * * * * * //

dimensions      [0 2 -1 0 0 0 0];

internalField      uniform 0;

boundaryField
{

    inlet-l
    {
        type            calculated;
        value           $internalField;
    }
    airfoil-l1
    {
        type            nutUSpaldingWallFunction;
        value           uniform 0;
    }
    empty-1
    {
        type            empty;
    }
    empty-2
    {
        type            empty;
    }
    wall-l1
    {
        type            calculated;
        value           $internalField;
    }
    airfoil-l2
    {
        type            nutUSpaldingWallFunction;
        value           uniform 0;
    }
    empty-3
    {
        type            empty;
    }
    empty-4
    {
        type            empty;
    }
    wall-l2
    {
        type            calculated;
        value           $internalField;
    }
    outlet-l
    {
        type            calculated;
        value           $internalField;
    }
    empty-5
    {
        type            empty;
    }
    empty-6
    {
        type            empty;
    }
    outlet-h
    {
        type            calculated;
        value           $internalField;
    }
    wall-h2
    {
        type            calculated;
        value           $internalField;
    }
    empty-7
    {
        type            empty;
    }
    empty-8
    {
        type            empty;
    }
    airfoil-h2
    {
        type            nutUSpaldingWallFunction;
        value           uniform 0;
    }
    wall-h1
    {
        type            calculated;
        value           $internalField;
    }
    empty-9
    {
        type            empty;
    }
    empty-10
    {
        type            empty;
    }
    inlet-h
    {
        type            calculated;
        value           $internalField;
    }
    airfoil-h1
    {
        type            nutUSpaldingWallFunction;
        value           uniform 0;
    }
    empty-11
    {
        type            empty;
    }
    empty-12
    {
        type            empty;
    }
}

// ************************************************************************* //
