/*--------------------------------*- C++ -*----------------------------------*\
  =========                 |
  \\      /  F ield         | OpenFOAM: The Open Source CFD Toolbox
   \\    /   O peration     | Website:  https://openfoam.org
    \\  /    A nd           | Version:  dev
     \\/     M anipulation  |
\*---------------------------------------------------------------------------*/
FoamFile
{
    version     2.0;
    format      ascii;
    class       polyBoundaryMesh;
    location    "constant/polyMesh";
    object      boundary;
}
// * * * * * * * * * * * * * * * * * * * * * * * * * * * * * * * * * * * * * //

25
(
    blade1-l2
    {
        type            wall;
        inGroups        List<word> 1(wall);
        nFaces          100;
        startFace       307840;
    }
    blade1-h2
    {
        type            wall;
        inGroups        List<word> 1(wall);
        nFaces          100;
        startFace       307940;
    }
    blade1-l1
    {
        type            wall;
        inGroups        List<word> 1(wall);
        nFaces          60;
        startFace       308040;
    }
    blade1-h1
    {
        type            wall;
        inGroups        List<word> 1(wall);
        nFaces          60;
        startFace       308100;
    }
    blade2-l2
    {
        type            wall;
        inGroups        List<word> 1(wall);
        nFaces          100;
        startFace       308160;
    }
    blade2-h2
    {
        type            wall;
        inGroups        List<word> 1(wall);
        nFaces          100;
        startFace       308260;
    }
    blade2-l1
    {
        type            wall;
        inGroups        List<word> 1(wall);
        nFaces          60;
        startFace       308360;
    }
    blade2-h1
    {
        type            wall;
        inGroups        List<word> 1(wall);
        nFaces          60;
        startFace       308420;
    }
    blade3-l2
    {
        type            wall;
        inGroups        List<word> 1(wall);
        nFaces          100;
        startFace       308480;
    }
    blade3-h2
    {
        type            wall;
        inGroups        List<word> 1(wall);
        nFaces          100;
        startFace       308580;
    }
    blade3-l1
    {
        type            wall;
        inGroups        List<word> 1(wall);
        nFaces          60;
        startFace       308680;
    }
    blade3-h1
    {
        type            wall;
        inGroups        List<word> 1(wall);
        nFaces          60;
        startFace       308740;
    }
    AMIin-blade1-1
    {
        type            patch;
        nFaces          60;
        startFace       308800;
    }
    AMIin-blade1-2
    {
        type            patch;
        nFaces          60;
        startFace       308860;
    }
    AMIin-blade1-3
    {
        type            patch;
        nFaces          100;
        startFace       308920;
    }
    AMIin-blade1-4
    {
        type            patch;
        nFaces          100;
        startFace       309020;
    }
    AMIin-blade2-1
    {
        type            patch;
        nFaces          60;
        startFace       309120;
    }
    AMIin-blade2-2
    {
        type            patch;
        nFaces          60;
        startFace       309180;
    }
    AMIin-blade2-3
    {
        type            patch;
        nFaces          100;
        startFace       309240;
    }
    AMIin-blade2-4
    {
        type            patch;
        nFaces          100;
        startFace       309340;
    }
    AMIin-blade3-1
    {
        type            patch;
        nFaces          60;
        startFace       309440;
    }
    AMIin-blade3-2
    {
        type            patch;
        nFaces          60;
        startFace       309500;
    }
    AMIin-blade3-3
    {
        type            patch;
        nFaces          100;
        startFace       309560;
    }
    AMIin-blade3-4
    {
        type            patch;
        nFaces          100;
        startFace       309660;
    }
    defaultFaces
    {
        type            empty;
        inGroups        List<word> 1(empty);
        nFaces          308800;
        startFace       309760;
    }
)

// ************************************************************************* //
