/*--------------------------------*- C++ -*----------------------------------*\
  =========                 |
  \\      /  F ield         | OpenFOAM: The Open Source CFD Toolbox
   \\    /   O peration     | Website:  https://openfoam.org
    \\  /    A nd           | Version:  dev
     \\/     M anipulation  |
\*---------------------------------------------------------------------------*/
FoamFile
{
    version     2.0;
    format      ascii;
    class       polyBoundaryMesh;
    location    "constant/polyMesh";
    object      boundary;
}
// * * * * * * * * * * * * * * * * * * * * * * * * * * * * * * * * * * * * * //

9
(
    defaultFaces
    {
        type            empty;
        inGroups        List<word> 1(empty);
        nFaces          936400;
        startFace       934260;
    }
    blade1
    {
        type            wall;
        inGroups        List<word> 1(wall);
        nFaces          340;
        startFace       1870660;
    }
    blade2
    {
        type            wall;
        inGroups        List<word> 1(wall);
        nFaces          340;
        startFace       1871000;
    }
    blade3
    {
        type            wall;
        inGroups        List<word> 1(wall);
        nFaces          340;
        startFace       1871340;
    }
    inlet
    {
        type            patch;
        nFaces          255;
        startFace       1871680;
    }
    outlet
    {
        type            patch;
        nFaces          255;
        startFace       1871935;
    }
    walls
    {
        type            wall;
        inGroups        List<word> 1(wall);
        nFaces          710;
        startFace       1872190;
    }
    AMI_out
    {
        type            cyclicAMI;
        inGroups        List<word> 1(cyclicAMI);
        nFaces          1020;
        startFace       1872900;
        matchTolerance  0.0001;
        transform       noOrdering;
        neighbourPatch  AMI_in;
        method          faceAreaWeightAMI;
    }
    AMI_in
    {
        type            cyclicAMI;
        inGroups        List<word> 1(cyclicAMI);
        nFaces          1020;
        startFace       1873920;
        matchTolerance  0.0001;
        transform       noOrdering;
        neighbourPatch  AMI_out;
        method          faceAreaWeightAMI;
    }
)

// ************************************************************************* //
