/*--------------------------------*- C++ -*----------------------------------*\
  =========                 |
  \\      /  F ield         | OpenFOAM: The Open Source CFD Toolbox
   \\    /   O peration     | Website:  https://openfoam.org
    \\  /    A nd           | Version:  dev
     \\/     M anipulation  |
\*---------------------------------------------------------------------------*/
FoamFile
{
    version     2.0;
    format      ascii;
    class       polyBoundaryMesh;
    location    "constant/polyMesh";
    object      boundary;
}
// * * * * * * * * * * * * * * * * * * * * * * * * * * * * * * * * * * * * * //

9
(
    defaultFaces
    {
        type            empty;
        inGroups        List<word> 1(empty);
        nFaces          483760;
        startFace       482246;
    }
    blade1
    {
        type            wall;
        inGroups        List<word> 1(wall);
        nFaces          340;
        startFace       966006;
    }
    blade2
    {
        type            wall;
        inGroups        List<word> 1(wall);
        nFaces          340;
        startFace       966346;
    }
    blade3
    {
        type            wall;
        inGroups        List<word> 1(wall);
        nFaces          340;
        startFace       966686;
    }
    inlet
    {
        type            patch;
        nFaces          120;
        startFace       967026;
    }
    outlet
    {
        type            patch;
        nFaces          120;
        startFace       967146;
    }
    walls
    {
        type            wall;
        inGroups        List<word> 1(wall);
        nFaces          268;
        startFace       967266;
    }
    AMI_out
    {
        type            cyclicAMI;
        inGroups        List<word> 1(cyclicAMI);
        nFaces          480;
        startFace       967534;
        matchTolerance  0.0001;
        transform       noOrdering;
        neighbourPatch  AMI_in;
        method          faceAreaWeightAMI;
    }
    AMI_in
    {
        type            cyclicAMI;
        inGroups        List<word> 1(cyclicAMI);
        nFaces          1020;
        startFace       968014;
        matchTolerance  0.0001;
        transform       noOrdering;
        neighbourPatch  AMI_out;
        method          faceAreaWeightAMI;
    }
)

// ************************************************************************* //
