/*--------------------------------*- C++ -*----------------------------------*\
  =========                 |
  \\      /  F ield         | OpenFOAM: The Open Source CFD Toolbox
   \\    /   O peration     | Website:  https://openfoam.org
    \\  /    A nd           | Version:  dev
     \\/     M anipulation  |
\*---------------------------------------------------------------------------*/
FoamFile
{
    version     2.0;
    format      ascii;
    class       polyBoundaryMesh;
    location    "constant/polyMesh";
    object      boundary;
}
// * * * * * * * * * * * * * * * * * * * * * * * * * * * * * * * * * * * * * //

5
(
    defaultFaces
    {
        type            empty;
        inGroups        List<word> 1(empty);
        nFaces          365200;
        startFace       364180;
    }
    blade1
    {
        type            wall;
        inGroups        List<word> 1(wall);
        nFaces          340;
        startFace       729380;
    }
    blade2
    {
        type            wall;
        inGroups        List<word> 1(wall);
        nFaces          340;
        startFace       729720;
    }
    blade3
    {
        type            wall;
        inGroups        List<word> 1(wall);
        nFaces          340;
        startFace       730060;
    }
    interface_in
    {
        type            patch;
        nFaces          1020;
        startFace       730400;
    }
)

// ************************************************************************* //
