/*--------------------------------*- C++ -*----------------------------------*\
| =========                 |                                                 |
| \\      /  F ield         | OpenFOAM: The Open Source CFD Toolbox           |
|  \\    /   O peration     | Version:  2.3.0                                 |
|   \\  /    A nd           | Web:      www.OpenFOAM.org                      |
|    \\/     M anipulation  |                                                 |
\*---------------------------------------------------------------------------*/
FoamFile
{
    version     2.0;
    format      ascii;
    class       dictionary;
    object      blockMeshDict;
}
// * * * * * * * * * * * * * * * * * * * * * * * * * * * * * * * * * * * * * //

convertToMeters 0.01;

vertices
(
    (   2.01242952416186  -3.45689563196253                  0 )  // 0 v9-z
    (    1.6095723103597  -3.05403841816037                  0 )  // 1 v8-z
    (  -2.71052240286085  -2.94160981498048                  0 )  // 2 v12a-z
    (  -2.95727036227251  -2.69342755692901                  0 )  // 3 v17c-z
    (  -2.31341763147298  -2.64001426080083                  0 )  // 4 v12b-z
    (  -3.18138060398167  -2.42462728117318                  0 )  // 5 v16-z
    (  -2.79226063487997  -2.32036289969356                  0 )  // 6 v17-z
    (  0.813468549880095  -2.25793465768077                  0 )  // 7 v7-z
    (   -3.0187328737909  -1.99521852332013                  0 )  // 8 v17b-z
    (  -1.40207821805329  -1.94786464377290                  0 )  // 9 v12-z
    (  -2.75907276773716  -1.92564280759645                  0 )  // 10 v17a-z
    (   3.23727636419196  -1.61669009428206                  0 )  // 11 v11b-z
    (   3.69047912219561  -1.54284278156862                  0 )  // 12 v10-z
    (   3.04719197386189    -1.426605703952                  0 )  // 13 v11a-z
    (   3.40562353457353  -1.25798719394654                  0 )  // 14 v11-z
    (   3.81121186868984  -1.21435748112230                  0 )  // 15 v11c-z
    (  0.851747144947075  -1.12894942361228                  0 )  // 16 v19-z
    (   3.90277002922516 -0.876576350914094                  0 )  // 17 v6a-z
    (  -1.12894942361228 -0.851747144947075                  0 )  // 18 v18-z
    (   3.44302823194320 -0.683471308018017                  0 )  // 19 v6b-z
    (   2.38793937366751 -0.240303033040516                  0 )  // 20 v6-z
    (    1.2379353553496 -0.173251424165756                  0 )  // 21 v23-z
    (  -3.99997419759194 -0.0143672752687358                  0 )  // 22 v15-z
    (  -3.44966100944038  0.133088699080673                  0 )  // 23 v14-z
    (   -1.2379353553496  0.173251424165756                  0 )  // 24 v22-z
    (  -2.36216304857691  0.424482899464532                  0 )  // 25 v13-z
    (   1.12894942361228  0.851747144947075                  0 )  // 26 v20-z
    ( -0.851747144947075   1.12894942361228                  0 )  // 27 v21-z
    (   1.54869449869682   1.83345175821623                  0 )  // 28 v1-z
    ( -0.985861155614214   2.18816767681342                  0 )  // 29 v0-z
    (   1.84008869908068    2.9209497190797                  0 )  // 30 v2-z
    (  -1.12961060047022   3.32348556881884                  0 )  // 31 v0b-z
    ( -0.288119206124735   3.35224851154845                  0 )  // 32 v5a-z
    (   1.98754467343008   3.47126290723127                  0 )  // 33 v3-z
    ( -0.613362899693558    3.5783500936401                  0 )  // 34 v5-z
    ( -0.218543490401054   3.61190861760219                  0 )  // 35 v5b-z
    (  -1.19224762636431   3.81818616589457                  0 )  // 36 v0a-z
    ( -0.853941506417323   3.90778503805131                  0 )  // 37 v5c-z
    ( -0.509098518213935   3.96747006274180                  0 )  // 38 v4-z
    (   2.01242952416186  -3.45689563196253                0.1 )  // 39 v9+z
    (    1.6095723103597  -3.05403841816037                0.1 )  // 40 v8+z
    (  -2.71052240286085  -2.94160981498048                0.1 )  // 41 v12a+z
    (  -2.95727036227251  -2.69342755692901                0.1 )  // 42 v17c+z
    (  -2.31341763147298  -2.64001426080083                0.1 )  // 43 v12b+z
    (  -3.18138060398167  -2.42462728117318                0.1 )  // 44 v16+z
    (  -2.79226063487997  -2.32036289969356                0.1 )  // 45 v17+z
    (  0.813468549880095  -2.25793465768077                0.1 )  // 46 v7+z
    (   -3.0187328737909  -1.99521852332013                0.1 )  // 47 v17b+z
    (  -1.40207821805329  -1.94786464377290                0.1 )  // 48 v12+z
    (  -2.75907276773716  -1.92564280759645                0.1 )  // 49 v17a+z
    (   3.23727636419196  -1.61669009428206                0.1 )  // 50 v11b+z
    (   3.69047912219561  -1.54284278156862                0.1 )  // 51 v10+z
    (   3.04719197386189    -1.426605703952                0.1 )  // 52 v11a+z
    (   3.40562353457353  -1.25798719394654                0.1 )  // 53 v11+z
    (   3.81121186868984  -1.21435748112230                0.1 )  // 54 v11c+z
    (  0.851747144947075  -1.12894942361228                0.1 )  // 55 v19+z
    (   3.90277002922516 -0.876576350914094                0.1 )  // 56 v6a+z
    (  -1.12894942361228 -0.851747144947075                0.1 )  // 57 v18+z
    (   3.44302823194320 -0.683471308018017                0.1 )  // 58 v6b+z
    (   2.38793937366751 -0.240303033040516                0.1 )  // 59 v6+z
    (    1.2379353553496 -0.173251424165756                0.1 )  // 60 v23+z
    (  -3.99997419759194 -0.0143672752687358                0.1 )  // 61 v15+z
    (  -3.44966100944038  0.133088699080673                0.1 )  // 62 v14+z
    (   -1.2379353553496  0.173251424165756                0.1 )  // 63 v22+z
    (  -2.36216304857691  0.424482899464532                0.1 )  // 64 v13+z
    (   1.12894942361228  0.851747144947075                0.1 )  // 65 v20+z
    ( -0.851747144947075   1.12894942361228                0.1 )  // 66 v21+z
    (   1.54869449869682   1.83345175821623                0.1 )  // 67 v1+z
    ( -0.985861155614214   2.18816767681342                0.1 )  // 68 v0+z
    (   1.84008869908068    2.9209497190797                0.1 )  // 69 v2+z
    (  -1.12961060047022   3.32348556881884                0.1 )  // 70 v0b+z
    ( -0.288119206124735   3.35224851154845                0.1 )  // 71 v5a+z
    (   1.98754467343008   3.47126290723127                0.1 )  // 72 v3+z
    ( -0.613362899693558    3.5783500936401                0.1 )  // 73 v5+z
    ( -0.218543490401054   3.61190861760219                0.1 )  // 74 v5b+z
    (  -1.19224762636431   3.81818616589457                0.1 )  // 75 v0a+z
    ( -0.853941506417323   3.90778503805131                0.1 )  // 76 v5c+z
    ( -0.509098518213935   3.96747006274180                0.1 )  // 77 v4+z
);

edges
(
  arc 72 77 ( 0.779747487179866   3.92326316428514                0.1) // arc-outer1+z (v3+z v4+z)
  arc 72 56 (  3.66058443117307   1.61248926267847                0.1) // arc-outer2+z (v3+z v6a+z)
  arc 54 56 (  3.86068688232046  -1.04646872704288                0.1) // arc-outer3+z (v11c+z v6a+z)
  arc 54 51 (  3.75443971570130  -1.37992116483686                0.1) // arc-outer4+z (v11c+z v10+z)
  arc 39 51 (  3.00777182241272  -2.63691271457742                0.1) // arc-outer5+z (v9+z v10+z)
  arc 39 41 (-0.433835550777338  -3.97640374143292                0.1) // arc-outer6+z (v9+z v12a+z)
  arc 42 41 ( -2.83661194304533  -2.82021855262542                0.1) // arc-outer7+z (v17c+z v12a+z)
  arc 42 44 ( -3.07226664181919  -2.56147958835612                0.1) // arc-outer8+z (v17c+z v16+z)
  arc 61 44 ( -3.78751930959259  -1.28635044970773                0.1) // arc-outer9+z (v15+z v16+z)
  arc 61 75 ( -3.22674888039573   2.36391447875445                0.1) // arc-outer10+z (v15+z v0a+z)
  arc 76 75 ( -1.02407493927513   3.86668727966830                0.1) // arc-outer11+z (v5c+z v0a+z)
  arc 76 77 (-0.682173073882113   3.94140075319299                0.1) // arc-outer12+z (v5c+z v4+z)
  arc 68 67 (1.46957615897682e-16                2.4                0.1) // arc-inner1+z (v0+z v1+z)
  arc 59 67 (  2.39963446837534 0.0418857754494804                0.1) // arc-inner2+z (v6+z v1+z)
  arc 59 46 (  1.69705627484771  -1.69705627484771                0.1) // arc-inner3+z (v6+z v7+z)
  arc 46 48 (1.46957615897682e-16               -2.4                0.1) // arc-inner4+z (v7+z v12+z)
  arc 48 64 ( -2.07846096908265               -1.2                0.1) // arc-inner5+z (v12+z v13+z)
  arc 64 68 ( -1.69705627484771   1.69705627484771                0.1) // arc-inner6+z (v13+z v0+z)
  arc 70 62 ( -2.63252367036363   1.97763452389902                0.1) // arc-mid-b3-2+z (v0b+z v14+z)
  arc 58 69 (  3.02894357227951   1.29101511264925                0.1) // arc-mid-b1-2+z (v6b+z v2+z)
  arc 43 40 (-0.396419901915881  -3.26864963654827                0.1) // arc-mid-b2-2+z (v12b+z v8+z)
  arc 73 70 (-0.875311382886713   3.45866491918999                0.1) // arc-mid-b1-1+z (v5+z v0b+z)
  arc 53 58 (  3.43294737463994 -0.971290565793413                0.1) // arc-mid-b2-1+z (v11+z v6b+z)
  arc 45 43 ( -2.55763599175323  -2.48737435339658                0.1) // arc-mid-b3-1+z (v17+z v12b+z)
  spline 73 74                      // blade1-p1+z (v5+z v5b+z)
     (
         ( -0.613178232964244   3.57901501617773                0.1 )
         ( -0.612981439226917   3.57967667140809                0.1 )
         ( -0.612772523132585   3.58033504269321                0.1 )
         ( -0.612551489451679   3.58099011342931                0.1 )
         ( -0.612318343073777   3.58164186704785                0.1 )
         (  -0.61207308900733   3.58229028701648                0.1 )
         (  -0.61181573237938   3.58293535684008                0.1 )
         ( -0.611546278435286   3.58357706006181                0.1 )
         ( -0.611264732538438   3.58421538026408                0.1 )
         ( -0.610971100169979    3.5848503010696                0.1 )
         ( -0.610665386928525   3.58548180614235                0.1 )
         ( -0.610347598529879   3.58610987918862                0.1 )
         ( -0.610017740806749   3.58673450395804                0.1 )
         (  -0.60967581970846   3.58735566424451                0.1 )
         ( -0.609321841300677   3.58797334388729                0.1 )
         ( -0.608955811765112   3.58858752677196                0.1 )
         ( -0.608577737399241   3.58919819683141                0.1 )
         ( -0.608187624616015   3.58980533804687                0.1 )
         ( -0.607785479943573   3.59040893444887                0.1 )
         ( -0.607371310024958   3.59100897011827                0.1 )
         (  -0.60694512161782   3.59160542918721                0.1 )
         ( -0.606506921594135   3.59219829584013                0.1 )
         ( -0.606056716939911   3.59278755431474                0.1 )
         ( -0.605594514754901   3.59337318890298                0.1 )
         ( -0.605120322252308   3.59395518395204                0.1 )
         (   -0.6046341467585   3.59453352386529                0.1 )
         ( -0.604135995712717   3.59510819310328                0.1 )
         ( -0.603625876666778   3.59567917618468                0.1 )
         ( -0.603103797284792   3.59624645768726                0.1 )
         ( -0.602569765342868   3.59681002224885                0.1 )
         ( -0.602023788728817   3.59736985456827                0.1 )
         (  -0.60146587544187    3.5979259394063                0.1 )
         ( -0.600896033592377   3.59847826158663                0.1 )
         ( -0.600314271401522   3.59902680599676                0.1 )
         ( -0.599720597201025   3.59957155758899                0.1 )
         ( -0.599115019432858   3.60011250138129                0.1 )
         ( -0.598497546648947    3.6006496224583                0.1 )
         ( -0.597868187510881   3.60118290597217                0.1 )
         ( -0.597226950789626   3.60171233714353                0.1 )
         ( -0.596573845365227   3.60223790126238                0.1 )
         ( -0.595908880226521   3.60275958368897                0.1 )
         ( -0.595232064470846   3.60327736985476                0.1 )
         (  -0.59454340730375   3.60379124526326                0.1 )
         ( -0.593842918038698   3.60430119549091                0.1 )
         ( -0.593130606096789   3.60480720618802                0.1 )
         (  -0.59240648100646   3.60530926307957                0.1 )
         ( -0.591670552403199   3.60580735196615                0.1 )
         ( -0.590922830029259   3.60630145872474                0.1 )
         ( -0.590163323733366   3.60679156930967                0.1 )
         ( -0.589392043470433   3.60727766975335                0.1 )
         ( -0.588608999301274   3.60775974616721                0.1 )
         ( -0.587814201392318    3.6082377847425                0.1 )
         ( -0.587007660015317   3.60871177175108                0.1 )
         ( -0.586189385547071   3.60918169354633                0.1 )
         ( -0.585359388469132   3.60964753656387                0.1 )
         (  -0.58451767936753   3.61010928732243                0.1 )
         ( -0.583664268932484   3.61056693242461                0.1 )
         ( -0.582799167958119   3.61102045855771                0.1 )
         ( -0.581922387342188    3.6114698524945                0.1 )
         ( -0.581033938085789   3.61191510109398                0.1 )
         ( -0.580133831293084   3.61235619130216                0.1 )
         (  -0.57922207817102   3.61279311015284                0.1 )
         ( -0.578298690029053   3.61322584476835                0.1 )
         ( -0.577363678278866   3.61365438236027                0.1 )
         ( -0.576417054434096   3.61407871023021                0.1 )
         ( -0.575458830110056   3.61449881577054                0.1 )
         ( -0.574489017023464   3.61491468646506                0.1 )
         ( -0.573507626992163   3.61532630988976                0.1 )
         ( -0.572514671934853   3.61573367371354                0.1 )
         (  -0.57151016387082   3.61613676569882                0.1 )
         ( -0.570494114919659   3.61653557370234                0.1 )
         ( -0.569466537301013   3.61693008567575                0.1 )
         ( -0.568427443334298   3.61732028966633                0.1 )
         ( -0.567376845438439   3.61770617381763                0.1 )
         ( -0.566314756131601   3.61808772637013                0.1 )
         ( -0.565241188030929   3.61846493566188                0.1 )
         ( -0.564156153852277   3.61883779012913                0.1 )
         ( -0.563059666409952   3.61920627830698                0.1 )
         ( -0.561951738616448   3.61957038882995                0.1 )
         (  -0.56083238348219   3.61993011043263                0.1 )
         ( -0.559701614115269   3.62028543195026                0.1 )
         ( -0.558559443721192   3.62063634231932                0.1 )
         ( -0.557405885602619    3.6209828305781                0.1 )
         ( -0.556240953159111   3.62132488586729                0.1 )
         ( -0.555064659886878   3.62166249743051                0.1 )
         ( -0.553877019378523    3.6219956546149                0.1 )
         ( -0.552678045322792   3.62232434687162                0.1 )
         ( -0.551467751504326    3.6226485637564                0.1 )
         ( -0.550246151803412   3.62296829493006                0.1 )
         ( -0.549013260195735   3.62328353015903                0.1 )
         ( -0.547769090752135   3.62359425931583                0.1 )
         ( -0.546513657638359   3.62390047237957                0.1 )
         ( -0.545246975114824   3.62420215943645                0.1 )
         ( -0.543969057536371   3.62449931068021                0.1 )
         ( -0.542679919352028   3.62479191641259                0.1 )
         ( -0.541379575104769   3.62507996704379                0.1 )
         ( -0.540068039431283   3.62536345309292                0.1 )
         ( -0.538745327061733   3.62564236518842                0.1 )
         ( -0.537411452819523   3.62591669406847                0.1 )
         ( -0.536066431621071   3.62618643058143                0.1 )
         ( -0.534710278475572   3.62645156568622                0.1 )
         ( -0.533343008484773    3.6267120904527                0.1 )
         ( -0.531964636842742    3.6269679960621                0.1 )
         ( -0.530575178835645   3.62721927380731                0.1 )
         ( -0.529174649841523   3.62746591509333                0.1 )
         ( -0.527763065330061   3.62770791143755                0.1 )
         ( -0.526340440862377   3.62794525447011                0.1 )
         ( -0.524906792090794   3.62817793593426                0.1 )
         ( -0.523462134758627   3.62840594768661                0.1 )
         ( -0.522006484699962   3.62862928169752                0.1 )
         ( -0.520539857839447   3.62884793005134                0.1 )
         (  -0.51906227019207   3.62906188494672                0.1 )
         ( -0.517573737862954   3.62927113869686                0.1 )
         ( -0.516074277047145   3.62947568372984                0.1 )
         ( -0.514563904029401   3.62967551258881                0.1 )
         ( -0.513042635183985   3.62987061793225                0.1 )
         ( -0.511510486974463   3.63006099253425                0.1 )
         ( -0.509967475953497   3.63024662928468                0.1 )
         ( -0.508413618762642   3.63042752118943                0.1 )
         ( -0.506848932132145   3.63060366137062                0.1 )
         ( -0.505273432880751   3.63077504306678                0.1 )
         ( -0.503687137915496   3.63094165963305                0.1 )
         ( -0.502090064231519   3.63110350454134                0.1 )
         ( -0.500482228911862    3.6312605713805                0.1 )
         ( -0.498863649127282   3.63141285385646                0.1 )
         ( -0.497234342136053   3.63156034579241                0.1 )
         ( -0.495594325283783    3.6317030411289                0.1 )
         (  -0.49394361600322   3.63184093392395                0.1 )
         ( -0.492282231814068   3.63197401835321                0.1 )
         ( -0.490610190322803   3.63210228871003                0.1 )
         ( -0.488927509222484   3.63222573940556                0.1 )
         ( -0.487234206292576   3.63234436496881                0.1 )
         ( -0.485530299398769   3.63245816004677                0.1 )
         ( -0.483815806492794   3.63256711940444                0.1 )
         ( -0.482090745612249   3.63267123792489                0.1 )
         ( -0.480355134880425    3.6327705106093                0.1 )
         ( -0.478608992506125   3.63286493257698                0.1 )
         ( -0.476852336783497   3.63295449906543                0.1 )
         ( -0.475085186091855   3.63303920543031                0.1 )
         ( -0.473307558895518   3.63311904714548                0.1 )
         ( -0.471519473743634   3.63319401980298                0.1 )
         ( -0.469720949270013   3.63326411911298                0.1 )
         ( -0.467912004192963   3.63332934090383                0.1 )
         ( -0.466092657315127   3.63338968112196                0.1 )
         ( -0.464262927523314   3.63344513583184                0.1 )
         ( -0.462422833788344   3.63349570121597                0.1 )
         (  -0.46057239516488   3.63354137357479                0.1 )
         ( -0.458711630791275   3.63358214932658                0.1 )
         ( -0.456840559889411   3.63361802500744                0.1 )
         ( -0.454959201764545   3.63364899727114                0.1 )
         ( -0.453067575805149   3.63367506288906                0.1 )
         ( -0.451165701482761   3.63369621875005                0.1 )
         ( -0.449253598351829   3.63371246186034                0.1 )
         ( -0.447331286049562   3.63372378934341                0.1 )
         ( -0.445398784295777   3.63373019843982                0.1 )
         ( -0.443456112892753   3.63373168650712                0.1 )
         ( -0.441503291725082   3.63372825101964                0.1 )
         ( -0.439540340759521   3.63371988956838                0.1 )
         ( -0.437567280044847    3.6337065998608                0.1 )
         ( -0.435584129711716   3.63368837972067                0.1 )
         ( -0.433590909972514   3.63366522708785                0.1 )
         ( -0.431587641121222   3.63363714001814                0.1 )
         ( -0.429574343533268   3.63360411668302                0.1 )
         ( -0.427551037665391   3.63356615536951                0.1 )
         ( -0.425517744055503   3.63352325447988                0.1 )
         ( -0.423474483322549   3.63347541253144                0.1 )
         ( -0.421421276166368   3.63342262815636                0.1 )
         ( -0.419358143367564   3.63336490010133                0.1 )
         ( -0.417285105787365   3.63330222722741                0.1 )
         ( -0.415202184367492   3.63323460850968                0.1 )
         ( -0.413109400130025   3.63316204303705                0.1 )
         (  -0.41100677417727   3.63308453001192                0.1 )
         (  -0.40889432769163   3.63300206874995                0.1 )
         ( -0.406772081935473   3.63291465867976                0.1 )
         ( -0.404640058251004    3.6328222993426                0.1 )
         ( -0.402498278060134    3.6327249903921                0.1 )
         ( -0.400346762864353   3.63262273159392                0.1 )
         ( -0.398185534244603   3.63251552282545                0.1 )
         ( -0.396014613861154   3.63240336407548                0.1 )
         ( -0.393834023453472    3.6322862554439                0.1 )
         (   -0.3916437848401   3.63216419714129                0.1 )
         ( -0.389443919918531   3.63203718948867                0.1 )
         ( -0.387234450665085   3.63190523291708                0.1 )
         ( -0.385015399134783   3.63176832796727                0.1 )
         ( -0.382786787461231   3.63162647528929                0.1 )
         ( -0.380548637856489   3.63147967564218                0.1 )
         ( -0.378300972610957   3.63132792989354                0.1 )
         ( -0.376043814093251   3.63117123901919                0.1 )
         ( -0.373777184750083   3.63100960410277                0.1 )
         (  -0.37150110710614   3.63084302633534                0.1 )
         ( -0.369215603763964   3.63067150701502                0.1 )
         ( -0.366920697403837   3.63049504754653                0.1 )
         ( -0.364616410783656   3.63031364944083                0.1 )
         (  -0.36230276673882   3.63012731431468                0.1 )
         ( -0.359979788182108   3.62993604389024                0.1 )
         ( -0.357647498103562   3.62973983999464                0.1 )
         ( -0.355305919570371   3.62953870455955                0.1 )
         ( -0.352955075726754   3.62933263962076                0.1 )
         ( -0.350594989793837   3.62912164731771                0.1 )
         ( -0.348225685069545    3.6289057298931                0.1 )
         ( -0.345847184928478   3.62868488969239                0.1 )
         ( -0.343459512821798   3.62845912916339                0.1 )
         ( -0.341062692277111   3.62822845085577                0.1 )
         ( -0.338656746898352   3.62799285742066                0.1 )
         ( -0.336241700365667   3.62775235161011                0.1 )
         ( -0.333817576435295   3.62750693627667                0.1 )
         ( -0.331384398939456   3.62725661437293                0.1 )
         ( -0.328942191786232   3.62700138895101                0.1 )
         (  -0.32649097895945   3.62674126316209                0.1 )
         ( -0.324030784518567   3.62647624025596                0.1 )
         (  -0.32156163259855   3.62620632358051                0.1 )
         ( -0.319083547409764   3.62593151658123                0.1 )
         ( -0.316596553237851   3.62565182280074                0.1 )
         ( -0.314100674443615   3.62536724587831                0.1 )
         ( -0.311595935462902   3.62507778954933                0.1 )
         ( -0.309082360806486   3.62478345764481                0.1 )
         ( -0.306559975059948   3.62448425409092                0.1 )
         ( -0.304028802883558   3.62418018290845                0.1 )
         ( -0.301488869012157   3.62387124821231                0.1 )
         (  -0.29894019825504   3.62355745421102                0.1 )
         (  -0.29638281549583    3.6232388052062                0.1 )
         ( -0.293816745692367   3.62291530559206                0.1 )
         ( -0.291242013876581   3.62258695985488                0.1 )
         ( -0.288658645154373    3.6222537725725                0.1 )
         ( -0.286066664705497   3.62191574841378                0.1 )
         ( -0.283466097783431   3.62157289213812                0.1 )
         ( -0.280856969715263   3.62122520859488                0.1 )
         ( -0.278239305901562   3.62087270272291                0.1 )
         ( -0.275613131816257      3.62051537955                0.1 )
         ( -0.272978473006512   3.62015324419234                0.1 )
         ( -0.270335355092601   3.61978630185403                0.1 )
         ( -0.267683803767784   3.61941455782652                0.1 )
         ( -0.265023844798179   3.61903801748808                0.1 )
         ( -0.262355504022636   3.61865668630331                0.1 )
         ( -0.259678807352607   3.61827056982255                0.1 )
         ( -0.256993780772021   3.61787967368139                0.1 )
         ( -0.254300450337152   3.61748400360013                0.1 )
         ( -0.251598842176491   3.61708356538325                0.1 )
         (  -0.24888898249061   3.61667836491885                0.1 )
         ( -0.246170897552038   3.61626840817817                0.1 )
         ( -0.243444613705119   3.61585370121499                0.1 )
         ( -0.240710157365886   3.61543425016517                0.1 )
         ( -0.237967555021922   3.61501006124607                0.1 )
         ( -0.235216833232223   3.61458114075602                0.1 )
         ( -0.232458018627065    3.6141474950738                0.1 )
         ( -0.229691137907865   3.61370913065812                0.1 )
         (  -0.22691621784704   3.61326605404707                0.1 )
         ( -0.224133285287867   3.61281827185758                0.1 )
         ( -0.221342367144347   3.61236579078493                0.1 )

     )

  spline 73 71                      // blade1-m1+z (v5+z v5a+z)
     (
         ( -0.613530914853134   3.57769878944949                0.1 )
         ( -0.613686794766976   3.57704424869519                0.1 )
         ( -0.613830535848775   3.57638648548133                0.1 )
         ( -0.613962134632472   3.57572551394314                0.1 )
         ( -0.614081587772393   3.57506134824644                0.1 )
         ( -0.614188892043379   3.57439400258713                0.1 )
         ( -0.614284044340921   3.57372349119068                0.1 )
         ( -0.614367041681293   3.57304982831159                0.1 )
         ( -0.614437881201681   3.57237302823289                0.1 )
         ( -0.614496560160314   3.57169310526562                0.1 )
         ( -0.614543075936589    3.5710100737483                0.1 )
         ( -0.614577426031201   3.57032394804644                0.1 )
         ( -0.614599608066265   3.56963474255198                0.1 )
         ( -0.614609619785446   3.56894247168281                0.1 )
         ( -0.614607459054073   3.56824714988223                0.1 )
         (  -0.61459312385927   3.56754879161844                0.1 )
         (  -0.61456661231007   3.56684741138403                0.1 )
         ( -0.614527922637536   3.56614302369543                0.1 )
         ( -0.614477053194877   3.56543564309244                0.1 )
         ( -0.614414002457568   3.56472528413769                0.1 )
         ( -0.614338769023463    3.5640119614161                0.1 )
         ( -0.614251351612905   3.56329568953442                0.1 )
         ( -0.614151749068846   3.56257648312065                0.1 )
         ( -0.614039960356948   3.56185435682358                0.1 )
         ( -0.613915984565703   3.56112932531223                0.1 )
         ( -0.613779820906532   3.56040140327537                0.1 )
         ( -0.613631468713897   3.55967060542098                0.1 )
         ( -0.613470927445406   3.55893694647574                0.1 )
         ( -0.613298196681912   3.55820044118456                0.1 )
         ( -0.613113276127624   3.55746110430999                0.1 )
         ( -0.612916165610199   3.55671895063177                0.1 )
         ( -0.612706865080846   3.55597399494629                0.1 )
         ( -0.612485374614427    3.5552262520661                0.1 )
         ( -0.612251694409547   3.55447573681937                0.1 )
         ( -0.612005824788653   3.55372246404941                0.1 )
         ( -0.611747766198129   3.55296644861415                0.1 )
         ( -0.611477519208384   3.55220770538563                0.1 )
         ( -0.611195084513948   3.55144624924949                0.1 )
         ( -0.610900462933556   3.55068209510447                0.1 )
         ( -0.610593655410241   3.54991525786192                0.1 )
         ( -0.610274663011414   3.54914575244525                0.1 )
         ( -0.609943486928955   3.54837359378949                0.1 )
         ( -0.609600128479292   3.54759879684074                0.1 )
         ( -0.609244589103484   3.54682137655567                0.1 )