/*--------------------------------*- C++ -*----------------------------------*\
  =========                 |
  \\      /  F ield         | OpenFOAM: The Open Source CFD Toolbox
   \\    /   O peration     | Website:  https://openfoam.org
    \\  /    A nd           | Version:  dev
     \\/     M anipulation  |
\*---------------------------------------------------------------------------*/
FoamFile
{
    version     2.0;
    format      ascii;
    class       polyBoundaryMesh;
    location    "constant/polyMesh";
    object      boundary;
}
// * * * * * * * * * * * * * * * * * * * * * * * * * * * * * * * * * * * * * //

5
(
    inlet
    {
        type            patch;
        nFaces          50;
        startFace       29700;
    }
    outlet
    {
        type            patch;
        nFaces          50;
        startFace       29750;
    }
    defaultFaces
    {
        type            empty;
        inGroups        List<word> 1(empty);
        nFaces          30000;
        startFace       29800;
    }
    walls
    {
        type            wall;
        inGroups        List<word> 1(wall);
        nFaces          300;
        startFace       59800;
    }
    interface_out
    {
        type            patch;
        nFaces          200;
        startFace       60100;
    }
)

// ************************************************************************* //
