/*--------------------------------*- C++ -*----------------------------------*\
  =========                 |
  \\      /  F ield         | OpenFOAM: The Open Source CFD Toolbox
   \\    /   O peration     | Website:  https://openfoam.org
    \\  /    A nd           | Version:  dev
     \\/     M anipulation  |
\*---------------------------------------------------------------------------*/
FoamFile
{
    version     2.0;
    format      ascii;
    class       polyBoundaryMesh;
    location    "constant/polyMesh";
    object      boundary;
}
// * * * * * * * * * * * * * * * * * * * * * * * * * * * * * * * * * * * * * //

5
(
    inlet
    {
        type            patch;
        nFaces          120;
        startFace       118066;
    }
    outlet
    {
        type            patch;
        nFaces          120;
        startFace       118186;
    }
    defaultFaces
    {
        type            empty;
        inGroups        List<word> 1(empty);
        nFaces          118560;
        startFace       118306;
    }
    walls
    {
        type            wall;
        inGroups        List<word> 1(wall);
        nFaces          268;
        startFace       236866;
    }
    interface_out
    {
        type            patch;
        nFaces          480;
        startFace       237134;
    }
)

// ************************************************************************* //
