/*--------------------------------*- C++ -*----------------------------------*\
  =========                 |
  \\      /  F ield         | OpenFOAM: The Open Source CFD Toolbox
   \\    /   O peration     | Website:  https://openfoam.org
    \\  /    A nd           | Version:  dev
     \\/     M anipulation  |
\*---------------------------------------------------------------------------*/
FoamFile
{
    version     2.0;
    format      ascii;
    class       polyBoundaryMesh;
    location    "constant/polyMesh";
    object      boundary;
}
// * * * * * * * * * * * * * * * * * * * * * * * * * * * * * * * * * * * * * //

5
(
    inlet
    {
        type            patch;
        nFaces          255;
        startFace       570080;
    }
    outlet
    {
        type            patch;
        nFaces          255;
        startFace       570335;
    }
    defaultFaces
    {
        type            empty;
        inGroups        List<word> 1(empty);
        nFaces          571200;
        startFace       570590;
    }
    walls
    {
        type            wall;
        inGroups        List<word> 1(wall);
        nFaces          710;
        startFace       1141790;
    }
    interface_out
    {
        type            patch;
        nFaces          1020;
        startFace       1142500;
    }
)

// ************************************************************************* //
